*SPEF "ieee 1481-1999"
*DESIGN "clk_int_div"
*DATE "18:05:24 Thursday October 31, 2024"
*VENDOR "The OpenROAD Project"
*PROGRAM "OpenROAD"
*VERSION "edf00dff99f6c40d67a30c0e22a8191c5d2ed9d6"
*DESIGN_FLOW "NAME_SCOPE LOCAL" "PIN_CAP NONE"
*DIVIDER /
*DELIMITER :
*BUS_DELIMITER []
*T_UNIT 1 NS
*C_UNIT 1 PF
*R_UNIT 1 OHM
*L_UNIT 1 HENRY

*NAME_MAP
*3 clk_i
*4 clk_o
*5 cycl_count_o[0]
*6 cycl_count_o[1]
*7 cycl_count_o[2]
*8 cycl_count_o[3]
*9 div_i[0]
*10 div_i[1]
*11 div_i[2]
*12 div_i[3]
*13 div_ready_o
*14 div_valid_i
*15 en_i
*16 rst_ni
*17 test_mode_en_i
*18 _000_
*19 _001_
*20 _002_
*21 _003_
*22 _004_
*23 _005_
*24 _006_
*25 _007_
*26 _008_
*27 _009_
*28 _010_
*29 _011_
*30 _012_
*31 _013_
*32 _014_
*33 _015_
*34 _016_
*35 _017_
*36 _018_
*37 _019_
*38 _020_
*39 _021_
*40 _022_
*41 _023_
*42 _024_
*43 _025_
*44 _026_
*45 _027_
*46 _028_
*47 _029_
*48 _030_
*49 _031_
*50 _032_
*51 _033_
*52 _034_
*53 _035_
*54 _036_
*55 _037_
*56 _038_
*57 _039_
*58 _040_
*59 _041_
*60 _042_
*61 _043_
*62 _044_
*63 _045_
*64 _046_
*65 _047_
*66 _048_
*67 _049_
*68 _050_
*69 _051_
*70 _052_
*71 _053_
*72 _054_
*73 _055_
*74 _056_
*75 _057_
*76 _058_
*77 _059_
*78 _060_
*79 _061_
*80 _062_
*81 _063_
*82 _064_
*83 _065_
*84 _066_
*85 _067_
*86 _068_
*87 _069_
*88 _070_
*89 _071_
*90 _072_
*91 _073_
*92 _074_
*93 _075_
*94 _076_
*95 clk_div_bypass_en_q
*96 clk_gate_state_q\[0\]
*97 clk_gate_state_q\[1\]
*98 div_q\[0\]
*99 div_q\[1\]
*100 div_q\[2\]
*101 div_q\[3\]
*102 even_clk
*103 gate_en_d
*104 gate_en_q
*105 gate_is_open_q
*106 i_clk_gate\.clk_en
*107 i_clk_gate\.en_i
*108 i_clk_mux\.clk_sel_i
*109 i_odd_clk_xor\.clk1_i
*110 net1
*111 net10
*112 net11
*113 net12
*114 net13
*115 net14
*116 net15
*117 net16
*118 net17
*119 net18
*120 net19
*121 net2
*122 net3
*123 net4
*124 net5
*125 net6
*126 net7
*127 net8
*128 net9
*129 FILLER_0_104
*130 FILLER_0_15
*131 FILLER_0_27
*132 FILLER_0_29
*133 FILLER_0_3
*134 FILLER_0_36
*135 FILLER_0_48
*136 FILLER_0_57
*137 FILLER_0_69
*138 FILLER_0_81
*139 FILLER_0_94
*140 FILLER_10_20
*141 FILLER_10_29
*142 FILLER_10_40
*143 FILLER_10_61
*144 FILLER_10_69
*145 FILLER_10_78
*146 FILLER_10_9
*147 FILLER_10_90
*148 FILLER_10_96
*149 FILLER_11_15
*150 FILLER_11_27
*151 FILLER_11_3
*152 FILLER_11_35
*153 FILLER_11_43
*154 FILLER_11_50
*155 FILLER_11_54
*156 FILLER_11_57
*157 FILLER_11_69
*158 FILLER_11_75
*159 FILLER_11_83
*160 FILLER_12_101
*161 FILLER_12_26
*162 FILLER_12_29
*163 FILLER_12_41
*164 FILLER_12_50
*165 FILLER_12_58
*166 FILLER_12_67
*167 FILLER_12_78
*168 FILLER_12_89
*169 FILLER_13_44
*170 FILLER_13_64
*171 FILLER_13_76
*172 FILLER_13_83
*173 FILLER_14_15
*174 FILLER_14_27
*175 FILLER_14_29
*176 FILLER_14_3
*177 FILLER_14_53
*178 FILLER_14_65
*179 FILLER_14_73
*180 FILLER_14_77
*181 FILLER_14_83
*182 FILLER_14_85
*183 FILLER_14_97
*184 FILLER_15_104
*185 FILLER_15_18
*186 FILLER_15_30
*187 FILLER_15_47
*188 FILLER_15_55
*189 FILLER_15_57
*190 FILLER_15_6
*191 FILLER_15_68
*192 FILLER_16_15
*193 FILLER_16_27
*194 FILLER_16_29
*195 FILLER_16_3
*196 FILLER_16_41
*197 FILLER_16_53
*198 FILLER_16_80
*199 FILLER_16_85
*200 FILLER_16_97
*201 FILLER_17_15
*202 FILLER_17_27
*203 FILLER_17_29
*204 FILLER_17_3
*205 FILLER_17_41
*206 FILLER_17_53
*207 FILLER_17_57
*208 FILLER_17_65
*209 FILLER_17_78
*210 FILLER_17_85
*211 FILLER_17_97
*212 FILLER_1_3
*213 FILLER_1_55
*214 FILLER_1_64
*215 FILLER_2_15
*216 FILLER_2_27
*217 FILLER_2_29
*218 FILLER_2_3
*219 FILLER_2_68
*220 FILLER_2_82
*221 FILLER_3_24
*222 FILLER_3_36
*223 FILLER_3_48
*224 FILLER_3_54
*225 FILLER_3_64
*226 FILLER_3_76
*227 FILLER_4_15
*228 FILLER_4_3
*229 FILLER_4_50
*230 FILLER_4_62
*231 FILLER_4_74
*232 FILLER_4_82
*233 FILLER_4_85
*234 FILLER_5_104
*235 FILLER_5_16
*236 FILLER_5_3
*237 FILLER_5_31
*238 FILLER_5_43
*239 FILLER_5_57
*240 FILLER_5_63
*241 FILLER_6_15
*242 FILLER_6_26
*243 FILLER_6_38
*244 FILLER_6_61
*245 FILLER_6_69
*246 FILLER_6_82
*247 FILLER_6_9
*248 FILLER_7_10
*249 FILLER_7_30
*250 FILLER_7_38
*251 FILLER_7_46
*252 FILLER_7_64
*253 FILLER_7_76
*254 FILLER_7_84
*255 FILLER_8_100
*256 FILLER_8_29
*257 FILLER_8_3
*258 FILLER_8_41
*259 FILLER_8_47
*260 FILLER_8_54
*261 FILLER_8_66
*262 FILLER_8_92
*263 FILLER_9_21
*264 FILLER_9_3
*265 FILLER_9_33
*266 FILLER_9_53
*267 FILLER_9_63
*268 FILLER_9_82
*269 PHY_EDGE_ROW_0_Left_18
*270 PHY_EDGE_ROW_0_Right_0
*271 PHY_EDGE_ROW_10_Left_28
*272 PHY_EDGE_ROW_10_Right_10
*273 PHY_EDGE_ROW_11_Left_29
*274 PHY_EDGE_ROW_11_Right_11
*275 PHY_EDGE_ROW_12_Left_30
*276 PHY_EDGE_ROW_12_Right_12
*277 PHY_EDGE_ROW_13_Left_31
*278 PHY_EDGE_ROW_13_Right_13
*279 PHY_EDGE_ROW_14_Left_32
*280 PHY_EDGE_ROW_14_Right_14
*281 PHY_EDGE_ROW_15_Left_33
*282 PHY_EDGE_ROW_15_Right_15
*283 PHY_EDGE_ROW_16_Left_34
*284 PHY_EDGE_ROW_16_Right_16
*285 PHY_EDGE_ROW_17_Left_35
*286 PHY_EDGE_ROW_17_Right_17
*287 PHY_EDGE_ROW_1_Left_19
*288 PHY_EDGE_ROW_1_Right_1
*289 PHY_EDGE_ROW_2_Left_20
*290 PHY_EDGE_ROW_2_Right_2
*291 PHY_EDGE_ROW_3_Left_21
*292 PHY_EDGE_ROW_3_Right_3
*293 PHY_EDGE_ROW_4_Left_22
*294 PHY_EDGE_ROW_4_Right_4
*295 PHY_EDGE_ROW_5_Left_23
*296 PHY_EDGE_ROW_5_Right_5
*297 PHY_EDGE_ROW_6_Left_24
*298 PHY_EDGE_ROW_6_Right_6
*299 PHY_EDGE_ROW_7_Left_25
*300 PHY_EDGE_ROW_7_Right_7
*301 PHY_EDGE_ROW_8_Left_26
*302 PHY_EDGE_ROW_8_Right_8
*303 PHY_EDGE_ROW_9_Left_27
*304 PHY_EDGE_ROW_9_Right_9
*305 TAP_TAPCELL_ROW_0_36
*306 TAP_TAPCELL_ROW_0_37
*307 TAP_TAPCELL_ROW_0_38
*308 TAP_TAPCELL_ROW_10_52
*309 TAP_TAPCELL_ROW_10_53
*310 TAP_TAPCELL_ROW_11_54
*311 TAP_TAPCELL_ROW_12_55
*312 TAP_TAPCELL_ROW_12_56
*313 TAP_TAPCELL_ROW_13_57
*314 TAP_TAPCELL_ROW_14_58
*315 TAP_TAPCELL_ROW_14_59
*316 TAP_TAPCELL_ROW_15_60
*317 TAP_TAPCELL_ROW_16_61
*318 TAP_TAPCELL_ROW_16_62
*319 TAP_TAPCELL_ROW_17_63
*320 TAP_TAPCELL_ROW_17_64
*321 TAP_TAPCELL_ROW_17_65
*322 TAP_TAPCELL_ROW_1_39
*323 TAP_TAPCELL_ROW_2_40
*324 TAP_TAPCELL_ROW_2_41
*325 TAP_TAPCELL_ROW_3_42
*326 TAP_TAPCELL_ROW_4_43
*327 TAP_TAPCELL_ROW_4_44
*328 TAP_TAPCELL_ROW_5_45
*329 TAP_TAPCELL_ROW_6_46
*330 TAP_TAPCELL_ROW_6_47
*331 TAP_TAPCELL_ROW_7_48
*332 TAP_TAPCELL_ROW_8_49
*333 TAP_TAPCELL_ROW_8_50
*334 TAP_TAPCELL_ROW_9_51
*335 _077_
*336 _078_
*337 _079_
*338 _080_
*339 _081_
*340 _082_
*341 _083_
*342 _084_
*343 _085_
*344 _086_
*345 _087_
*346 _088_
*347 _089_
*348 _090_
*349 _091_
*350 _092_
*351 _093_
*352 _094_
*353 _095_
*354 _096_
*355 _097_
*356 _098_
*357 _099_
*358 _100_
*359 _101_
*360 _102_
*361 _103_
*362 _104_
*363 _105_
*364 _106_
*365 _107_
*366 _108_
*367 _109_
*368 _110_
*369 _111_
*370 _112_
*371 _113_
*372 _114_
*373 _115_
*374 _116_
*375 _117_
*376 _118_
*377 _119_
*378 _120_
*379 _121_
*380 _122_
*381 _123_
*382 _124_
*383 _125_
*384 _126_
*385 _127_
*386 _128_
*387 _129_
*388 _130_
*389 _131_
*390 _132_
*391 _133_
*392 _134_
*393 _135_
*394 _136_
*395 _137_
*396 _138_
*397 _139_
*398 _140_
*399 _141_
*400 _142_
*401 _143_
*402 _144_
*403 _145_
*404 _146_
*405 _147_
*406 _148_
*407 _149_
*408 _150_
*409 _151_
*410 _152_
*411 _153_
*412 _154_
*413 _155_
*414 _156_
*415 _157_
*416 _158_
*417 _159_
*418 _160_
*419 _161_
*420 _162_
*421 _163_
*422 _164_
*423 _165_
*424 _166_
*425 _167_
*426 _168_
*427 _169_
*428 _170_
*429 _171_
*430 _172_
*431 _173_
*432 _174_
*433 fanout16
*434 fanout17
*435 fanout18
*436 fanout19
*437 input1
*438 input2
*439 input3
*440 input4
*441 input5
*442 input6
*443 input7
*444 input8
*445 input9
*446 output10
*447 output11
*448 output12
*449 output13
*450 output14
*451 output15

*PORTS
clk_i I
clk_o O
cycl_count_o[0] O
cycl_count_o[1] O
cycl_count_o[2] O
cycl_count_o[3] O
div_i[0] I
div_i[1] I
div_i[2] I
div_i[3] I
div_ready_o O
div_valid_i I
en_i I
rst_ni I
test_mode_en_i I

*D_NET *3 0.000655904
*CONN
*P clk_i I
*I *437:A I *D sky130_fd_sc_hd__clkbuf_1
*CAP
1 clk_i 0.000327952
2 *437:A 0.000327952
3 *437:A *435:A 0
*RES
1 clk_i *437:A 21.391 
*END

*D_NET *4 0.00123364
*CONN
*P clk_o O
*I *446:X O *D sky130_fd_sc_hd__buf_2
*CAP
1 clk_o 0.000551367
2 *446:X 0.000551367
3 clk_o *381:B 9.90431e-05
4 clk_o *446:A 3.18676e-05
*RES
1 *446:X clk_o 23.2821 
*END

*D_NET *5 0.000749407
*CONN
*P cycl_count_o[0] O
*I *447:X O *D sky130_fd_sc_hd__buf_2
*CAP
1 cycl_count_o[0] 0.000299723
2 *447:X 0.000299723
3 cycl_count_o[0] cycl_count_o[2] 9.54485e-05
4 cycl_count_o[0] cycl_count_o[3] 0
5 cycl_count_o[0] *450:A 1.99737e-05
6 cycl_count_o[0] *112:57 3.454e-05
*RES
1 *447:X cycl_count_o[0] 19.0903 
*END

*D_NET *6 0.00109671
*CONN
*P cycl_count_o[1] O
*I *448:X O *D sky130_fd_sc_hd__buf_2
*CAP
1 cycl_count_o[1] 0.000520206
2 *448:X 0.000520206
3 cycl_count_o[1] *448:A 5.62995e-05
*RES
1 *448:X cycl_count_o[1] 23.0679 
*END

*D_NET *7 0.000608811
*CONN
*P cycl_count_o[2] O
*I *449:X O *D sky130_fd_sc_hd__buf_2
*CAP
1 cycl_count_o[2] 0.000222865
2 *449:X 0.000222865
3 cycl_count_o[2] *450:A 6.76337e-05
4 cycl_count_o[0] cycl_count_o[2] 9.54485e-05
*RES
1 *449:X cycl_count_o[2] 18.8021 
*END

*D_NET *8 0.000730501
*CONN
*P cycl_count_o[3] O
*I *450:X O *D sky130_fd_sc_hd__buf_2
*CAP
1 cycl_count_o[3] 0.000292521
2 *450:X 0.000292521
3 cycl_count_o[3] div_ready_o 8.24195e-05
4 cycl_count_o[3] *97:12 6.30405e-05
5 cycl_count_o[0] cycl_count_o[3] 0
*RES
1 *450:X cycl_count_o[3] 20.0163 
*END

*D_NET *9 0.00077181
*CONN
*P div_i[0] I
*I *438:A I *D sky130_fd_sc_hd__clkbuf_1
*CAP
1 div_i[0] 0.000334982
2 *438:A 0.000334982
3 *438:A *414:A1 6.99087e-05
4 *438:A *440:A 0
5 *438:A *441:A 3.19385e-05
*RES
1 div_i[0] *438:A 18.9462 
*END

*D_NET *10 0.000636786
*CONN
*P div_i[1] I
*I *439:A I *D sky130_fd_sc_hd__buf_1
*CAP
1 div_i[1] 0.000307096
2 *439:A 0.000307096
3 *439:A *440:A 2.25951e-05
*RES
1 div_i[1] *439:A 21.0874 
*END

*D_NET *11 0.00122873
*CONN
*P div_i[2] I
*I *440:A I *D sky130_fd_sc_hd__buf_1
*CAP
1 div_i[2] 0.000451981
2 *440:A 0.000451981
3 *440:A *426:D 6.74911e-05
4 *440:A *441:A 2.25951e-05
5 *440:A *122:10 2.89016e-05
6 *440:A *122:16 0.000183184
7 *438:A *440:A 0
8 *439:A *440:A 2.25951e-05
*RES
1 div_i[2] *440:A 23.3913 
*END

*D_NET *12 0.000728562
*CONN
*P div_i[3] I
*I *441:A I *D sky130_fd_sc_hd__buf_1
*CAP
1 div_i[3] 0.000337014
2 *441:A 0.000337014
3 *441:A *72:8 0
4 *441:A *124:10 0
5 *438:A *441:A 3.19385e-05
6 *440:A *441:A 2.25951e-05
*RES
1 div_i[3] *441:A 21.9981 
*END

*D_NET *13 0.00110983
*CONN
*P div_ready_o O
*I *451:X O *D sky130_fd_sc_hd__buf_6
*CAP
1 div_ready_o 0.000298015
2 *451:X 0.000298015
3 div_ready_o *360:A1 6.71264e-05
4 div_ready_o *360:A2 1.18064e-05
5 div_ready_o *442:A 0.00032829
6 div_ready_o *451:A 0
7 div_ready_o *97:20 2.41606e-05
8 cycl_count_o[3] div_ready_o 8.24195e-05
*RES
1 *451:X div_ready_o 21.8378 
*END

*D_NET *14 0.00100155
*CONN
*P div_valid_i I
*I *442:A I *D sky130_fd_sc_hd__buf_1
*CAP
1 div_valid_i 0.000282767
2 *442:A 0.000282767
3 *442:A *360:A1 5.41797e-06
4 *442:A *360:A2 1.91512e-05
5 *442:A *443:A 8.31618e-05
6 div_ready_o *442:A 0.00032829
*RES
1 div_valid_i *442:A 21.7657 
*END

*D_NET *15 0.000434518
*CONN
*P en_i I
*I *443:A I *D sky130_fd_sc_hd__clkbuf_1
*CAP
1 en_i 0.000132811
2 *443:A 0.000132811
3 *443:A *444:A 8.57347e-05
4 *443:A *105:10 0
5 *442:A *443:A 8.31618e-05
*RES
1 en_i *443:A 18.1229 
*END

*D_NET *16 0.00199083
*CONN
*P rst_ni I
*I *444:A I *D sky130_fd_sc_hd__clkbuf_1
*CAP
1 rst_ni 0.000797984
2 *444:A 0.000797984
3 *444:A *381:B 4.38243e-05
4 *444:A *430:CLK 2.63433e-05
5 *444:A *430:D 1.00375e-05
6 *444:A *107:10 0.000166269
7 *444:A *120:32 6.26559e-05
8 *443:A *444:A 8.57347e-05
*RES
1 rst_ni *444:A 22.0081 
*END

*D_NET *17 0.00084331
*CONN
*P test_mode_en_i I
*I *445:A I *D sky130_fd_sc_hd__clkbuf_1
*CAP
1 test_mode_en_i 0.000421655
2 *445:A 0.000421655
*RES
1 test_mode_en_i *445:A 21.8357 
*END

*D_NET *18 0.000222583
*CONN
*I *432:D I *D sky130_fd_sc_hd__dlxtp_1
*I *381:X O *D sky130_fd_sc_hd__or2_1
*CAP
1 *432:D 8.22804e-05
2 *381:X 8.22804e-05
3 *432:D *375:B 5.80217e-05
*RES
1 *381:X *432:D 29.5464 
*END

*D_NET *19 0.000123565
*CONN
*I *432:GATE I *D sky130_fd_sc_hd__dlxtp_1
*I *379:Y O *D sky130_fd_sc_hd__inv_2
*CAP
1 *432:GATE 4.58485e-05
2 *379:Y 4.58485e-05
3 *432:GATE *379:A 3.18676e-05
*RES
1 *379:Y *432:GATE 19.5464 
*END

*D_NET *20 0.00199358
*CONN
*I *380:B I *D sky130_fd_sc_hd__and2_1
*I *418:CLK I *D sky130_fd_sc_hd__dfrtp_1
*I *379:A I *D sky130_fd_sc_hd__inv_2
*I *378:X O *D sky130_fd_sc_hd__mux2_1
*CAP
1 *380:B 0.00021457
2 *418:CLK 1.91209e-05
3 *379:A 0.00021504
4 *378:X 0
5 *20:23 0.000417618
6 *20:4 0.000398968
7 *379:A *375:B 0.000100831
8 *379:A *420:RESET_B 0.00013359
9 *380:B *375:B 0
10 *380:B *380:A 4.57538e-05
11 *380:B *381:B 0.000198729
12 *380:B *420:CLK 3.69047e-06
13 *380:B *430:CLK 7.8327e-05
14 *20:23 *378:S 5.17614e-05
15 *20:23 *420:CLK 8.37135e-05
16 *432:GATE *379:A 3.18676e-05
*RES
1 *378:X *20:4 9.3 
2 *20:4 *379:A 22.6571 
3 *20:4 *20:23 3.42857 
4 *20:23 *418:CLK 9.72857 
5 *20:23 *380:B 23.925 
*END

*D_NET *21 0.000742826
*CONN
*I *419:CLK I *D sky130_fd_sc_hd__dfrtp_1
*I *340:Y O *D sky130_fd_sc_hd__inv_2
*CAP
1 *419:CLK 0.000304031
2 *340:Y 0.000304031
3 *419:CLK *340:A 0.000134765
*RES
1 *340:Y *419:CLK 32.3679 
*END

*D_NET *22 0.000594929
*CONN
*I *416:D I *D sky130_fd_sc_hd__dfrtp_2
*I *382:X O *D sky130_fd_sc_hd__a41o_1
*CAP
1 *416:D 0.000138416
2 *382:X 0.000138416
3 *416:D *362:A 3.92854e-05
4 *416:D *55:6 5.52302e-05
5 *416:D *95:34 5.71472e-05
6 *416:D *95:51 8.57023e-05
7 *416:D *119:101 8.07313e-05
*RES
1 *382:X *416:D 30.8321 
*END

*D_NET *23 0.000401337
*CONN
*I *417:D I *D sky130_fd_sc_hd__dfrtp_2
*I *392:X O *D sky130_fd_sc_hd__or2_1
*CAP
1 *417:D 0.000117311
2 *392:X 0.000117311
3 *417:D *417:RESET_B 5.52238e-05
4 *417:D *77:128 7.67171e-05
5 *417:D *120:32 3.47737e-05
*RES
1 *392:X *417:D 30.0107 
*END

*D_NET *24 0.000493209
*CONN
*I *419:D I *D sky130_fd_sc_hd__dfrtp_1
*I *372:Y O *D sky130_fd_sc_hd__xnor2_1
*CAP
1 *419:D 0.000194978
2 *372:Y 0.000194978
3 *419:D *419:RESET_B 0.000103253
*RES
1 *372:Y *419:D 30.2964 
*END

*D_NET *25 0.000453053
*CONN
*I *420:D I *D sky130_fd_sc_hd__dfrtp_1
*I *397:Y O *D sky130_fd_sc_hd__xnor2_1
*CAP
1 *420:D 0.000177008
2 *397:Y 0.000177008
3 *420:D *377:A 0
4 *420:D *378:A0 0
5 *420:D *397:A 0
6 *420:D *117:12 9.90367e-05
*RES
1 *397:Y *420:D 30.1893 
*END

*D_NET *26 0.000716105
*CONN
*I *421:D I *D sky130_fd_sc_hd__dfrtp_4
*I *402:Y O *D sky130_fd_sc_hd__a211oi_1
*CAP
1 *421:D 0.000165597
2 *402:Y 0.000165597
3 *421:D *404:A1 0.000186662
4 *421:D *404:A2 0.000186123
5 *421:D *120:12 1.21258e-05
*RES
1 *402:Y *421:D 22.4214 
*END

*D_NET *27 0.000876092
*CONN
*I *422:D I *D sky130_fd_sc_hd__dfrtp_4
*I *404:Y O *D sky130_fd_sc_hd__a21oi_1
*CAP
1 *422:D 0.000200915
2 *404:Y 0.000200915
3 *422:D *402:B1 5.52302e-05
4 *422:D *402:C1 9.69119e-06
5 *422:D *403:B 4.6387e-05
6 *422:D *404:A1 0
7 *422:D *404:B1 0.00012401
8 *422:D *422:RESET_B 0.000142856
9 *422:D *45:41 0
10 *422:D *120:12 9.60875e-05
*RES
1 *404:Y *422:D 32.4571 
*END

*D_NET *28 0.000716031
*CONN
*I *423:D I *D sky130_fd_sc_hd__dfrtp_2
*I *407:Y O *D sky130_fd_sc_hd__a211oi_1
*CAP
1 *423:D 0.00025178
2 *407:Y 0.00025178
3 *423:D *407:A1 9.41642e-05
4 *423:D *407:B1 7.48301e-06
5 *423:D *407:C1 2.27416e-05
6 *423:D *46:27 5.52238e-05
7 *423:D *46:37 1.5424e-05
8 *423:D *120:20 1.74352e-05
*RES
1 *407:Y *423:D 22.8321 
*END

*D_NET *29 0.000412085
*CONN
*I *424:D I *D sky130_fd_sc_hd__dfrtp_2
*I *409:Y O *D sky130_fd_sc_hd__a21oi_1
*CAP
1 *424:D 0.000153748
2 *409:Y 0.000153748
3 *424:D *46:10 5.16759e-05
4 *424:D *46:27 2.10446e-05
5 *424:D *115:29 3.18676e-05
6 *424:D *118:53 0
*RES
1 *409:Y *424:D 30.6893 
*END

*D_NET *30 0.000511542
*CONN
*I *425:D I *D sky130_fd_sc_hd__dfstp_2
*I *410:X O *D sky130_fd_sc_hd__mux2_1
*CAP
1 *425:D 0.000195823
2 *410:X 0.000195823
3 *425:D *77:30 9.25014e-06
4 *425:D *77:40 0
5 *425:D *95:23 2.72859e-05
6 *425:D *98:10 2.84109e-05
7 *425:D *119:75 5.49489e-05
*RES
1 *410:X *425:D 30.725 
*END

*D_NET *31 0.000892687
*CONN
*I *426:D I *D sky130_fd_sc_hd__dfrtp_4
*I *411:X O *D sky130_fd_sc_hd__mux2_1
*CAP
1 *426:D 0.00030348
2 *411:X 0.00030348
3 *426:D *427:D 0
4 *426:D *119:28 0.000141591
5 *426:D *122:10 6.73939e-05
6 *426:D *122:16 9.25014e-06
7 *440:A *426:D 6.74911e-05
*RES
1 *411:X *426:D 34.3321 
*END

*D_NET *32 0.000968936
*CONN
*I *427:D I *D sky130_fd_sc_hd__dfrtp_2
*I *412:X O *D sky130_fd_sc_hd__mux2_1
*CAP
1 *427:D 0.000339494
2 *412:X 0.000339494
3 *427:D *427:RESET_B 0
4 *427:D *117:51 0
5 *427:D *119:12 0
6 *427:D *119:28 0.000272658
7 *427:D *123:23 1.72894e-05
8 *426:D *427:D 0
*RES
1 *412:X *427:D 34.6357 
*END

*D_NET *33 0.000465903
*CONN
*I *428:D I *D sky130_fd_sc_hd__dfrtp_1
*I *413:X O *D sky130_fd_sc_hd__mux2_1
*CAP
1 *428:D 0.000151658
2 *413:X 0.000151658
3 *428:D *353:A 0.000104974
4 *428:D *77:70 0
5 *428:D *124:16 5.76121e-05
*RES
1 *413:X *428:D 30.2964 
*END

*D_NET *34 0.000622483
*CONN
*I *429:D I *D sky130_fd_sc_hd__dfstp_1
*I *414:X O *D sky130_fd_sc_hd__mux2_1
*CAP
1 *429:D 0.000149158
2 *414:X 0.000149158
3 *429:D *431:CLK 1.02504e-05
4 *429:D *119:30 0.000144512
5 *429:D *119:32 0.000169405
*RES
1 *414:X *429:D 31.6714 
*END

*D_NET *35 0.000893564
*CONN
*I *431:D I *D sky130_fd_sc_hd__dfrtp_1
*I *415:X O *D sky130_fd_sc_hd__mux2_1
*CAP
1 *431:D 0.000273439
2 *415:X 0.000273439
3 *431:D *431:RESET_B 0.000213802
4 *431:D *95:12 2.79092e-05
5 *431:D *117:40 0.000104974
*RES
1 *415:X *431:D 34.3321 
*END

*D_NET *36 0.000918348
*CONN
*I *390:B I *D sky130_fd_sc_hd__or3b_1
*I *387:Y O *D sky130_fd_sc_hd__a21oi_1
*CAP
1 *390:B 0.000184379
2 *387:Y 0.000184379
3 *390:B *387:B1 2.59355e-05
4 *390:B *389:B1 1.56e-05
5 *390:B *82:27 0.00022266
6 *390:B *91:17 1.21258e-05
7 *390:B *113:20 0.000273269
*RES
1 *387:Y *390:B 23.2607 
*END

*D_NET *37 0.000667483
*CONN
*I *390:C_N I *D sky130_fd_sc_hd__or3b_1
*I *388:X O *D sky130_fd_sc_hd__o211a_1
*CAP
1 *390:C_N 0.00027487
2 *388:X 0.00027487
3 *390:C_N *388:A2 5.33005e-05
4 *390:C_N *406:A1 0
5 *390:C_N *82:38 0
6 *390:C_N *112:20 6.4443e-05
*RES
1 *388:X *390:C_N 31.4214 
*END

*D_NET *38 0.000422635
*CONN
*I *390:A I *D sky130_fd_sc_hd__or3b_1
*I *389:X O *D sky130_fd_sc_hd__a22o_1
*CAP
1 *390:A 0.00014652
2 *389:X 0.00014652
3 *390:A *113:20 0.000129595
*RES
1 *389:X *390:A 21.6357 
*END

*D_NET *39 0.00244106
*CONN
*I *399:A2 I *D sky130_fd_sc_hd__o21ai_2
*I *391:A2 I *D sky130_fd_sc_hd__o211a_1
*I *390:X O *D sky130_fd_sc_hd__or3b_1
*CAP
1 *399:A2 0
2 *391:A2 0.000135905
3 *390:X 0.000440991
4 *39:12 0.000576896
5 *391:A2 *362:B 9.71197e-05
6 *391:A2 *391:A1 7.6021e-05
7 *391:A2 *47:10 5.26091e-05
8 *39:12 *391:A1 8.57023e-05
9 *39:12 *47:10 0
10 *39:12 *47:21 0
11 *39:12 *94:12 0.000462815
12 *39:12 *113:22 3.57844e-05
13 *39:12 *114:36 8.32171e-05
14 *39:12 *114:44 0.000394005
*RES
1 *390:X *39:12 30.1571 
2 *39:12 *391:A2 21.6214 
3 *39:12 *399:A2 9.3 
*END

*D_NET *40 0.000542618
*CONN
*I *392:B I *D sky130_fd_sc_hd__or2_1
*I *391:X O *D sky130_fd_sc_hd__o211a_1
*CAP
1 *392:B 0.000145964
2 *391:X 0.000145964
3 *392:B *362:B 0.000184745
4 *392:B *417:RESET_B 1.02504e-05
5 *392:B *45:8 5.56943e-05
6 *392:B *120:32 0
*RES
1 *391:X *392:B 30.7071 
*END

*D_NET *41 0.00080452
*CONN
*I *394:D I *D sky130_fd_sc_hd__or4_1
*I *393:X O *D sky130_fd_sc_hd__xor2_1
*CAP
1 *394:D 0.000251101
2 *393:X 0.000251101
3 *394:D *371:C_N 7.50601e-05
4 *394:D *393:A 0.000227258
5 *394:D *394:C 0
*RES
1 *393:X *394:D 31.725 
*END

*D_NET *42 0.000944035
*CONN
*I *395:B1 I *D sky130_fd_sc_hd__o31a_1
*I *394:X O *D sky130_fd_sc_hd__or4_1
*CAP
1 *395:B1 0.000376709
2 *394:X 0.000376709
3 *395:B1 *362:A 0
4 *395:B1 *395:A2 5.59013e-05
5 *395:B1 *396:A 5.62995e-05
6 *395:B1 *396:B 0
7 *395:B1 *396:C 0
8 *395:B1 *75:12 7.84156e-05
*RES
1 *394:X *395:B1 34.1893 
*END

*D_NET *43 0.000414905
*CONN
*I *396:C I *D sky130_fd_sc_hd__or3_1
*I *395:X O *D sky130_fd_sc_hd__o31a_1
*CAP
1 *396:C 0.000126016
2 *395:X 0.000126016
3 *396:C *371:C_N 0
4 *396:C *394:A 4.1331e-06
5 *396:C *396:A 6.19181e-05
6 *396:C *396:B 4.15914e-05
7 *396:C *58:25 5.52302e-05
8 *395:B1 *396:C 0
*RES
1 *395:X *396:C 30.0821 
*END

*D_NET *44 0.000955505
*CONN
*I *397:B I *D sky130_fd_sc_hd__xnor2_1
*I *396:X O *D sky130_fd_sc_hd__or3_1
*CAP
1 *397:B 0.000358261
2 *396:X 0.000358261
3 *397:B *363:C 9.47456e-05
4 *397:B *371:B 6.75007e-05
5 *397:B *396:B 4.15914e-05
6 *397:B *397:A 3.51442e-05
7 *397:B *108:29 0
*RES
1 *396:X *397:B 34.4036 
*END

*D_NET *45 0.00425237
*CONN
*I *404:A1 I *D sky130_fd_sc_hd__a21oi_1
*I *402:A1 I *D sky130_fd_sc_hd__a211oi_1
*I *401:B I *D sky130_fd_sc_hd__nor2_1
*I *407:A1 I *D sky130_fd_sc_hd__a211oi_1
*I *409:A1 I *D sky130_fd_sc_hd__a21oi_1
*I *398:X O *D sky130_fd_sc_hd__or3_2
*CAP
1 *404:A1 0.000211491
2 *402:A1 0
3 *401:B 5.5939e-05
4 *407:A1 3.62502e-05
5 *409:A1 0.000227557
6 *398:X 0.000329344
7 *45:41 0.000318667
8 *45:30 0.000251752
9 *45:19 0.000277822
10 *45:8 0.000709836
11 *401:B *112:14 0.00014285
12 *404:A1 *404:A2 2.44318e-05
13 *404:A1 *422:CLK 2.26327e-05
14 *404:A1 *46:37 1.02504e-05
15 *404:A1 *120:12 1.39841e-05
16 *407:A1 *407:B1 3.69047e-06
17 *407:A1 *46:37 5.33005e-05
18 *409:A1 *409:B1 0.000180777
19 *409:A1 *114:25 4.70078e-05
20 *45:8 *362:B 0.000126439
21 *45:8 *391:A1 3.57747e-05
22 *45:8 *391:B1 5.38886e-05
23 *45:8 *408:B 8.06427e-05
24 *45:8 *409:B1 2.56601e-05
25 *45:8 *417:RESET_B 7.39637e-05
26 *45:8 *47:10 0
27 *45:8 *120:26 0
28 *45:8 *120:32 0
29 *45:19 *406:B1 0
30 *45:19 *407:B1 3.92757e-05
31 *45:19 *408:B 6.7257e-05
32 *45:19 *409:B1 1.19402e-05
33 *45:19 *46:27 0
34 *45:19 *46:37 3.34295e-05
35 *45:19 *120:20 1.41029e-05
36 *45:19 *120:26 0
37 *45:30 *46:37 0.000173804
38 *45:30 *47:30 0
39 *45:41 *402:C1 4.16383e-05
40 *45:41 *46:37 0.000220455
41 *45:41 *47:30 0
42 *392:B *45:8 5.56943e-05
43 *421:D *404:A1 0.000186662
44 *422:D *404:A1 0
45 *422:D *45:41 0
46 *423:D *407:A1 9.41642e-05
*RES
1 *398:X *45:8 22.1214 
2 *45:8 *409:A1 16.8 
3 *45:8 *45:19 3.46429 
4 *45:19 *407:A1 14.7464 
5 *45:19 *45:30 2.25 
6 *45:30 *401:B 15.1571 
7 *45:30 *45:41 2.85714 
8 *45:41 *402:A1 13.8 
9 *45:41 *404:A1 17.1214 
*END

*D_NET *46 0.00413344
*CONN
*I *407:A2 I *D sky130_fd_sc_hd__a211oi_1
*I *402:A2 I *D sky130_fd_sc_hd__a211oi_1
*I *404:A2 I *D sky130_fd_sc_hd__a21oi_1
*I *409:A2 I *D sky130_fd_sc_hd__a21oi_1
*I *399:Y O *D sky130_fd_sc_hd__o21ai_2
*CAP
1 *407:A2 0
2 *402:A2 0
3 *404:A2 8.14449e-05
4 *409:A2 0
5 *399:Y 0.000401926
6 *46:37 0.000271946
7 *46:27 0.000409322
8 *46:10 0.000620746
9 *404:A2 *120:12 0.000228976
10 *46:10 *362:B 0.000166416
11 *46:10 *391:A1 9.90367e-05
12 *46:10 *118:46 0
13 *46:10 *120:26 0.000199691
14 *46:10 *120:32 0.000150632
15 *46:27 *118:53 0
16 *46:27 *120:20 4.51476e-05
17 *46:27 *120:26 0.00014209
18 *46:37 *407:C1 0
19 *46:37 *422:CLK 2.41865e-05
20 *46:37 *423:CLK 5.7661e-06
21 *46:37 *120:20 0.000440947
22 *404:A1 *404:A2 2.44318e-05
23 *404:A1 *46:37 1.02504e-05
24 *407:A1 *46:37 5.33005e-05
25 *421:D *404:A2 0.000186123
26 *423:D *46:27 5.52238e-05
27 *423:D *46:37 1.5424e-05
28 *424:D *46:10 5.16759e-05
29 *424:D *46:27 2.10446e-05
30 *45:19 *46:27 0
31 *45:19 *46:37 3.34295e-05
32 *45:30 *46:37 0.000173804
33 *45:41 *46:37 0.000220455
*RES
1 *399:Y *46:10 22.4071 
2 *46:10 *409:A2 13.8 
3 *46:10 *46:27 8.96429 
4 *46:27 *46:37 15.6607 
5 *46:37 *404:A2 12.8714 
6 *46:37 *402:A2 9.3 
7 *46:27 *407:A2 9.3 
*END

*D_NET *47 0.00516946
*CONN
*I *403:B I *D sky130_fd_sc_hd__xnor2_1
*I *402:B1 I *D sky130_fd_sc_hd__a211oi_1
*I *406:A2 I *D sky130_fd_sc_hd__a21oi_1
*I *405:C I *D sky130_fd_sc_hd__and3_1
*I *400:X O *D sky130_fd_sc_hd__o31a_1
*CAP
1 *403:B 0.000301798
2 *402:B1 0.000154622
3 *406:A2 0
4 *405:C 0.000108233
5 *400:X 0.000850245
6 *47:30 0.000696966
7 *47:21 0.000410075
8 *47:10 0.00112801
9 *402:B1 *120:12 0.000139445
10 *403:B *404:B1 0.000297566
11 *403:B *448:A 5.52238e-05
12 *405:C *405:A 5.52302e-05
13 *405:C *114:25 8.33859e-06
14 *405:C *114:36 8.81471e-06
15 *47:10 *337:A 5.99221e-05
16 *47:10 *362:A 0.000279231
17 *47:10 *391:A1 0
18 *47:10 *391:C1 9.21958e-05
19 *47:10 *398:A 1.39841e-05
20 *47:10 *398:C 9.60875e-05
21 *47:10 *399:B1 0.00010326
22 *47:10 *408:B 0
23 *47:10 *94:12 0
24 *47:10 *97:51 9.60699e-05
25 *47:10 *114:44 0
26 *47:21 *406:B1 5.5782e-05
27 *47:21 *408:B 0
28 *47:21 *94:12 0
29 *47:30 *402:C1 0
30 *47:30 *406:B1 4.1331e-06
31 *391:A2 *47:10 5.26091e-05
32 *422:D *402:B1 5.52302e-05
33 *422:D *403:B 4.6387e-05
34 *39:12 *47:10 0
35 *39:12 *47:21 0
36 *45:8 *47:10 0
37 *45:30 *47:30 0
38 *45:41 *47:30 0
*RES
1 *400:X *47:10 29.1036 
2 *47:10 *405:C 15.2286 
3 *47:10 *47:21 3.46429 
4 *47:21 *406:A2 13.8 
5 *47:21 *47:30 4.07143 
6 *47:30 *402:B1 15.9786 
7 *47:30 *403:B 20.5857 
*END

*D_NET *48 0.000241038
*CONN
*I *402:C1 I *D sky130_fd_sc_hd__a211oi_1
*I *401:Y O *D sky130_fd_sc_hd__nor2_1
*CAP
1 *402:C1 9.48542e-05
2 *401:Y 9.48542e-05
3 *422:D *402:C1 9.69119e-06
4 *45:41 *402:C1 4.16383e-05
5 *47:30 *402:C1 0
*RES
1 *401:Y *402:C1 29.2429 
*END

*D_NET *49 0.000793513
*CONN
*I *404:B1 I *D sky130_fd_sc_hd__a21oi_1
*I *403:Y O *D sky130_fd_sc_hd__xnor2_1
*CAP
1 *404:B1 0.000171513
2 *403:Y 0.000171513
3 *404:B1 *422:CLK 0
4 *404:B1 *120:12 2.89114e-05
5 *403:B *404:B1 0.000297566
6 *422:D *404:B1 0.00012401
*RES
1 *403:Y *404:B1 31.9036 
*END

*D_NET *50 0.00083012
*CONN
*I *407:B1 I *D sky130_fd_sc_hd__a211oi_1
*I *408:B I *D sky130_fd_sc_hd__xnor2_1
*I *405:X O *D sky130_fd_sc_hd__and3_1
*CAP
1 *407:B1 0.000110563
2 *408:B 0.000158065
3 *405:X 0
4 *50:6 0.000268628
5 *407:B1 *406:B1 3.48235e-05
6 *407:B1 *407:C1 5.52302e-05
7 *408:B *406:B1 4.46186e-06
8 *407:A1 *407:B1 3.69047e-06
9 *423:D *407:B1 7.48301e-06
10 *45:8 *408:B 8.06427e-05
11 *45:19 *407:B1 3.92757e-05
12 *45:19 *408:B 6.7257e-05
13 *47:10 *408:B 0
14 *47:21 *408:B 0
*RES
1 *405:X *50:6 13.8 
2 *50:6 *408:B 17.2643 
3 *50:6 *407:B1 15.7821 
*END

*D_NET *51 0.000264844
*CONN
*I *407:C1 I *D sky130_fd_sc_hd__a211oi_1
*I *406:Y O *D sky130_fd_sc_hd__a21oi_1
*CAP
1 *407:C1 9.3436e-05
2 *406:Y 9.3436e-05
3 *407:C1 *423:CLK 0
4 *407:C1 *120:26 0
5 *407:B1 *407:C1 5.52302e-05
6 *423:D *407:C1 2.27416e-05
7 *46:37 *407:C1 0
*RES
1 *406:Y *407:C1 20.3857 
*END

*D_NET *52 0.000710167
*CONN
*I *409:B1 I *D sky130_fd_sc_hd__a21oi_1
*I *408:Y O *D sky130_fd_sc_hd__xnor2_1
*CAP
1 *409:B1 0.00015133
2 *408:Y 0.00015133
3 *409:B1 *114:25 0.000139019
4 *409:B1 *120:26 5.01117e-05
5 *409:A1 *409:B1 0.000180777
6 *45:8 *409:B1 2.56601e-05
7 *45:19 *409:B1 1.19402e-05
*RES
1 *408:Y *409:B1 31.5286 
*END

*D_NET *53 0.00149207
*CONN
*I *368:B2 I *D sky130_fd_sc_hd__o2bb2a_1
*I *367:B2 I *D sky130_fd_sc_hd__a22oi_1
*I *335:Y O *D sky130_fd_sc_hd__inv_2
*CAP
1 *368:B2 0.000146469
2 *367:B2 0.000121605
3 *335:Y 1.54781e-05
4 *53:6 0.000283552
5 *367:B2 *387:A1 7.94953e-05
6 *368:B2 *367:A1 0.000341276
7 *368:B2 *368:A2_N 4.70078e-05
8 *368:B2 *369:B2 0.000126426
9 *368:B2 *65:37 0.000132438
10 *53:6 *367:A1 9.83388e-05
11 *53:6 *369:B2 9.99853e-05
*RES
1 *335:Y *53:6 10.2464 
2 *53:6 *367:B2 20.55 
3 *53:6 *368:B2 13.5321 
*END

*D_NET *54 0.00175143
*CONN
*I *391:B1 I *D sky130_fd_sc_hd__o211a_1
*I *382:A1 I *D sky130_fd_sc_hd__a41o_1
*I *336:Y O *D sky130_fd_sc_hd__inv_2
*CAP
1 *391:B1 0.000164244
2 *382:A1 0.000139156
3 *336:Y 0.000181548
4 *54:8 0.000484948
5 *382:A1 *337:A 0.000120655
6 *382:A1 *350:A1 2.6949e-05
7 *382:A1 *363:B 5.01213e-05
8 *382:A1 *382:B1 3.58638e-05
9 *382:A1 *417:RESET_B 0
10 *382:A1 *75:12 6.09963e-05
11 *391:B1 *337:A 8.66228e-05
12 *391:B1 *391:A1 1.02504e-05
13 *391:B1 *391:C1 9.57064e-05
14 *391:B1 *417:RESET_B 0
15 *54:8 *350:B1 0.000230475
16 *54:8 *112:67 1.00073e-05
17 *45:8 *391:B1 5.38886e-05
*RES
1 *336:Y *54:8 16.3893 
2 *54:8 *382:A1 17.6214 
3 *54:8 *391:B1 18.175 
*END

*D_NET *55 0.00200873
*CONN
*I *361:C I *D sky130_fd_sc_hd__and3b_4
*I *350:A1 I *D sky130_fd_sc_hd__a21oi_1
*I *382:A2 I *D sky130_fd_sc_hd__a41o_1
*I *337:Y O *D sky130_fd_sc_hd__inv_2
*CAP
1 *361:C 0.000110696
2 *350:A1 0.000110684
3 *382:A2 2.23854e-05
4 *337:Y 0.000110868
5 *55:15 0.000246727
6 *55:6 0.000158601
7 *350:A1 *363:B 0.000171368
8 *350:A1 *382:A4 4.35131e-05
9 *350:A1 *417:RESET_B 3.38136e-05
10 *350:A1 *75:27 3.48235e-05
11 *361:C *361:B 5.71472e-05
12 *361:C *382:A3 0.000203102
13 *361:C *382:B1 0.000369245
14 *55:6 *337:A 5.71472e-05
15 *55:6 *382:B1 9.90367e-05
16 *55:6 *75:12 4.40915e-05
17 *55:15 *382:B1 5.33005e-05
18 *382:A1 *350:A1 2.6949e-05
19 *416:D *55:6 5.52302e-05
*RES
1 *337:Y *55:6 11.8893 
2 *55:6 *382:A2 9.72857 
3 *55:6 *55:15 0.535714 
4 *55:15 *350:A1 21.4607 
5 *55:15 *361:C 13.675 
*END

*D_NET *56 0.000611902
*CONN
*I *369:A1 I *D sky130_fd_sc_hd__o221a_1
*I *338:Y O *D sky130_fd_sc_hd__inv_2
*CAP
1 *369:A1 0.000149907
2 *338:Y 0.000149907
3 *369:A1 *367:A1 4.58194e-05
4 *369:A1 *63:25 0.000144696
5 *369:A1 *65:37 0.000121573
6 *369:A1 *115:42 0
*RES
1 *338:Y *369:A1 30.4929 
*END

*D_NET *57 0.000436444
*CONN
*I *371:A I *D sky130_fd_sc_hd__or3b_1
*I *339:Y O *D sky130_fd_sc_hd__inv_2
*CAP
1 *371:A 4.09658e-05
2 *339:Y 4.09658e-05
3 *371:A *95:23 0.000125057
4 *371:A *119:94 0.000229456
*RES
1 *339:Y *371:A 20.7786 
*END

*D_NET *58 0.00180142
*CONN
*I *368:A1_N I *D sky130_fd_sc_hd__o2bb2a_1
*I *347:B I *D sky130_fd_sc_hd__and2b_1
*I *394:B I *D sky130_fd_sc_hd__or4_1
*I *341:X O *D sky130_fd_sc_hd__xor2_1
*CAP
1 *368:A1_N 0.000168928
2 *347:B 0
3 *394:B 0.000103459
4 *341:X 0
5 *58:25 0.000469273
6 *58:4 0.000403804
7 *368:A1_N *368:A2_N 1.24368e-05
8 *368:A1_N *370:C1 3.92854e-05
9 *368:A1_N *395:A2 5.07157e-05
10 *368:A1_N *115:42 0
11 *368:A1_N *115:44 0
12 *394:B *371:C_N 8.00806e-05
13 *394:B *396:A 7.83587e-05
14 *394:B *112:73 4.77447e-05
15 *58:25 *395:A2 0.000143494
16 *58:25 *396:A 0
17 *58:25 *112:67 0
18 *58:25 *112:73 0.000148616
19 *58:25 *115:44 0
20 *396:C *58:25 5.52302e-05
*RES
1 *341:X *58:4 9.3 
2 *58:4 *394:B 20.2821 
3 *58:4 *58:25 11.2679 
4 *58:25 *347:B 13.8 
5 *58:25 *368:A1_N 16.7955 
*END

*D_NET *59 0.00324138
*CONN
*I *367:A1 I *D sky130_fd_sc_hd__a22oi_1
*I *369:B2 I *D sky130_fd_sc_hd__o221a_1
*I *342:Y O *D sky130_fd_sc_hd__nand2_1
*CAP
1 *367:A1 0.000523985
2 *369:B2 9.01981e-05
3 *342:Y 0.000229841