*SPEF "ieee 1481-1999"
*DESIGN "clk_int_div"
*DATE "18:05:24 Thursday October 31, 2024"
*VENDOR "The OpenROAD Project"
*PROGRAM "OpenROAD"
*VERSION "edf00dff99f6c40d67a30c0e22a8191c5d2ed9d6"
*DESIGN_FLOW "NAME_SCOPE LOCAL" "PIN_CAP NONE"
*DIVIDER /
*DELIMITER :
*BUS_DELIMITER []
*T_UNIT 1 NS
*C_UNIT 1 PF
*R_UNIT 1 OHM
*L_UNIT 1 HENRY

*NAME_MAP
*3 clk_i
*4 clk_o
*5 cycl_count_o[0]
*6 cycl_count_o[1]
*7 cycl_count_o[2]
*8 cycl_count_o[3]
*9 div_i[0]
*10 div_i[1]
*11 div_i[2]
*12 div_i[3]
*13 div_ready_o
*14 div_valid_i
*15 en_i
*16 rst_ni
*17 test_mode_en_i
*18 _000_
*19 _001_
*20 _002_
*21 _003_
*22 _004_
*23 _005_
*24 _006_
*25 _007_
*26 _008_
*27 _009_
*28 _010_
*29 _011_
*30 _012_
*31 _013_
*32 _014_
*33 _015_
*34 _016_
*35 _017_
*36 _018_
*37 _019_
*38 _020_
*39 _021_
*40 _022_
*41 _023_
*42 _024_
*43 _025_
*44 _026_
*45 _027_
*46 _028_
*47 _029_
*48 _030_
*49 _031_
*50 _032_
*51 _033_
*52 _034_
*53 _035_
*54 _036_
*55 _037_
*56 _038_
*57 _039_
*58 _040_
*59 _041_
*60 _042_
*61 _043_
*62 _044_
*63 _045_
*64 _046_
*65 _047_
*66 _048_
*67 _049_
*68 _050_
*69 _051_
*70 _052_
*71 _053_
*72 _054_
*73 _055_
*74 _056_
*75 _057_
*76 _058_
*77 _059_
*78 _060_
*79 _061_
*80 _062_
*81 _063_
*82 _064_
*83 _065_
*84 _066_
*85 _067_
*86 _068_
*87 _069_
*88 _070_
*89 _071_
*90 _072_
*91 _073_
*92 _074_
*93 _075_
*94 _076_
*95 clk_div_bypass_en_q
*96 clk_gate_state_q\[0\]
*97 clk_gate_state_q\[1\]
*98 div_q\[0\]
*99 div_q\[1\]
*100 div_q\[2\]
*101 div_q\[3\]
*102 even_clk
*103 gate_en_d
*104 gate_en_q
*105 gate_is_open_q
*106 i_clk_gate\.clk_en
*107 i_clk_gate\.en_i
*108 i_clk_mux\.clk_sel_i
*109 i_odd_clk_xor\.clk1_i
*110 net1
*111 net10
*112 net11
*113 net12
*114 net13
*115 net14
*116 net15
*117 net16
*118 net17
*119 net18
*120 net19
*121 net2
*122 net3
*123 net4
*124 net5
*125 net6
*126 net7
*127 net8
*128 net9
*129 FILLER_0_104
*130 FILLER_0_15
*131 FILLER_0_27
*132 FILLER_0_29
*133 FILLER_0_3
*134 FILLER_0_36
*135 FILLER_0_48
*136 FILLER_0_57
*137 FILLER_0_69
*138 FILLER_0_81
*139 FILLER_0_94
*140 FILLER_10_20
*141 FILLER_10_29
*142 FILLER_10_40
*143 FILLER_10_61
*144 FILLER_10_69
*145 FILLER_10_78
*146 FILLER_10_9
*147 FILLER_10_90
*148 FILLER_10_96
*149 FILLER_11_15
*150 FILLER_11_27
*151 FILLER_11_3
*152 FILLER_11_35
*153 FILLER_11_43
*154 FILLER_11_50
*155 FILLER_11_54
*156 FILLER_11_57
*157 FILLER_11_69
*158 FILLER_11_75
*159 FILLER_11_83
*160 FILLER_12_101
*161 FILLER_12_26
*162 FILLER_12_29
*163 FILLER_12_41
*164 FILLER_12_50
*165 FILLER_12_58
*166 FILLER_12_67
*167 FILLER_12_78
*168 FILLER_12_89
*169 FILLER_13_44
*170 FILLER_13_64
*171 FILLER_13_76
*172 FILLER_13_83
*173 FILLER_14_15
*174 FILLER_14_27
*175 FILLER_14_29
*176 FILLER_14_3
*177 FILLER_14_53
*178 FILLER_14_65
*179 FILLER_14_73
*180 FILLER_14_77
*181 FILLER_14_83
*182 FILLER_14_85
*183 FILLER_14_97
*184 FILLER_15_104
*185 FILLER_15_18
*186 FILLER_15_30
*187 FILLER_15_47
*188 FILLER_15_55
*189 FILLER_15_57
*190 FILLER_15_6
*191 FILLER_15_68
*192 FILLER_16_15
*193 FILLER_16_27
*194 FILLER_16_29
*195 FILLER_16_3
*196 FILLER_16_41
*197 FILLER_16_53
*198 FILLER_16_80
*199 FILLER_16_85
*200 FILLER_16_97
*201 FILLER_17_15
*202 FILLER_17_27
*203 FILLER_17_29
*204 FILLER_17_3
*205 FILLER_17_41
*206 FILLER_17_53
*207 FILLER_17_57
*208 FILLER_17_65
*209 FILLER_17_78
*210 FILLER_17_85
*211 FILLER_17_97
*212 FILLER_1_3
*213 FILLER_1_55
*214 FILLER_1_64
*215 FILLER_2_15
*216 FILLER_2_27
*217 FILLER_2_29
*218 FILLER_2_3
*219 FILLER_2_68
*220 FILLER_2_82
*221 FILLER_3_24
*222 FILLER_3_36
*223 FILLER_3_48
*224 FILLER_3_54
*225 FILLER_3_64
*226 FILLER_3_76
*227 FILLER_4_15
*228 FILLER_4_3
*229 FILLER_4_50
*230 FILLER_4_62
*231 FILLER_4_74
*232 FILLER_4_82
*233 FILLER_4_85
*234 FILLER_5_104
*235 FILLER_5_16
*236 FILLER_5_3
*237 FILLER_5_31
*238 FILLER_5_43
*239 FILLER_5_57
*240 FILLER_5_63
*241 FILLER_6_15
*242 FILLER_6_26
*243 FILLER_6_38
*244 FILLER_6_61
*245 FILLER_6_69
*246 FILLER_6_82
*247 FILLER_6_9
*248 FILLER_7_10
*249 FILLER_7_30
*250 FILLER_7_38
*251 FILLER_7_46
*252 FILLER_7_64
*253 FILLER_7_76
*254 FILLER_7_84
*255 FILLER_8_100
*256 FILLER_8_29
*257 FILLER_8_3
*258 FILLER_8_41
*259 FILLER_8_47
*260 FILLER_8_54
*261 FILLER_8_66
*262 FILLER_8_92
*263 FILLER_9_21
*264 FILLER_9_3
*265 FILLER_9_33
*266 FILLER_9_53
*267 FILLER_9_63
*268 FILLER_9_82
*269 PHY_EDGE_ROW_0_Left_18
*270 PHY_EDGE_ROW_0_Right_0
*271 PHY_EDGE_ROW_10_Left_28
*272 PHY_EDGE_ROW_10_Right_10
*273 PHY_EDGE_ROW_11_Left_29
*274 PHY_EDGE_ROW_11_Right_11
*275 PHY_EDGE_ROW_12_Left_30
*276 PHY_EDGE_ROW_12_Right_12
*277 PHY_EDGE_ROW_13_Left_31
*278 PHY_EDGE_ROW_13_Right_13
*279 PHY_EDGE_ROW_14_Left_32
*280 PHY_EDGE_ROW_14_Right_14
*281 PHY_EDGE_ROW_15_Left_33
*282 PHY_EDGE_ROW_15_Right_15
*283 PHY_EDGE_ROW_16_Left_34
*284 PHY_EDGE_ROW_16_Right_16
*285 PHY_EDGE_ROW_17_Left_35
*286 PHY_EDGE_ROW_17_Right_17
*287 PHY_EDGE_ROW_1_Left_19
*288 PHY_EDGE_ROW_1_Right_1
*289 PHY_EDGE_ROW_2_Left_20
*290 PHY_EDGE_ROW_2_Right_2
*291 PHY_EDGE_ROW_3_Left_21
*292 PHY_EDGE_ROW_3_Right_3
*293 PHY_EDGE_ROW_4_Left_22
*294 PHY_EDGE_ROW_4_Right_4
*295 PHY_EDGE_ROW_5_Left_23
*296 PHY_EDGE_ROW_5_Right_5
*297 PHY_EDGE_ROW_6_Left_24
*298 PHY_EDGE_ROW_6_Right_6
*299 PHY_EDGE_ROW_7_Left_25
*300 PHY_EDGE_ROW_7_Right_7
*301 PHY_EDGE_ROW_8_Left_26
*302 PHY_EDGE_ROW_8_Right_8
*303 PHY_EDGE_ROW_9_Left_27
*304 PHY_EDGE_ROW_9_Right_9
*305 TAP_TAPCELL_ROW_0_36
*306 TAP_TAPCELL_ROW_0_37
*307 TAP_TAPCELL_ROW_0_38
*308 TAP_TAPCELL_ROW_10_52
*309 TAP_TAPCELL_ROW_10_53
*310 TAP_TAPCELL_ROW_11_54
*311 TAP_TAPCELL_ROW_12_55
*312 TAP_TAPCELL_ROW_12_56
*313 TAP_TAPCELL_ROW_13_57
*314 TAP_TAPCELL_ROW_14_58
*315 TAP_TAPCELL_ROW_14_59
*316 TAP_TAPCELL_ROW_15_60
*317 TAP_TAPCELL_ROW_16_61
*318 TAP_TAPCELL_ROW_16_62
*319 TAP_TAPCELL_ROW_17_63
*320 TAP_TAPCELL_ROW_17_64
*321 TAP_TAPCELL_ROW_17_65
*322 TAP_TAPCELL_ROW_1_39
*323 TAP_TAPCELL_ROW_2_40
*324 TAP_TAPCELL_ROW_2_41
*325 TAP_TAPCELL_ROW_3_42
*326 TAP_TAPCELL_ROW_4_43
*327 TAP_TAPCELL_ROW_4_44
*328 TAP_TAPCELL_ROW_5_45
*329 TAP_TAPCELL_ROW_6_46
*330 TAP_TAPCELL_ROW_6_47
*331 TAP_TAPCELL_ROW_7_48
*332 TAP_TAPCELL_ROW_8_49
*333 TAP_TAPCELL_ROW_8_50
*334 TAP_TAPCELL_ROW_9_51
*335 _077_
*336 _078_
*337 _079_
*338 _080_
*339 _081_
*340 _082_
*341 _083_
*342 _084_
*343 _085_
*344 _086_
*345 _087_
*346 _088_
*347 _089_
*348 _090_
*349 _091_
*350 _092_
*351 _093_
*352 _094_
*353 _095_
*354 _096_
*355 _097_
*356 _098_
*357 _099_
*358 _100_
*359 _101_
*360 _102_
*361 _103_
*362 _104_
*363 _105_
*364 _106_
*365 _107_
*366 _108_
*367 _109_
*368 _110_
*369 _111_
*370 _112_
*371 _113_
*372 _114_
*373 _115_
*374 _116_
*375 _117_
*376 _118_
*377 _119_
*378 _120_
*379 _121_
*380 _122_
*381 _123_
*382 _124_
*383 _125_
*384 _126_
*385 _127_
*386 _128_
*387 _129_
*388 _130_
*389 _131_
*390 _132_
*391 _133_
*392 _134_
*393 _135_
*394 _136_
*395 _137_
*396 _138_
*397 _139_
*398 _140_
*399 _141_
*400 _142_
*401 _143_
*402 _144_
*403 _145_
*404 _146_
*405 _147_
*406 _148_
*407 _149_
*408 _150_
*409 _151_
*410 _152_
*411 _153_
*412 _154_
*413 _155_
*414 _156_
*415 _157_
*416 _158_
*417 _159_
*418 _160_
*419 _161_
*420 _162_
*421 _163_
*422 _164_
*423 _165_
*424 _166_
*425 _167_
*426 _168_
*427 _169_
*428 _170_
*429 _171_
*430 _172_
*431 _173_
*432 _174_
*433 fanout16
*434 fanout17
*435 fanout18
*436 fanout19
*437 input1
*438 input2
*439 input3
*440 input4
*441 input5
*442 input6
*443 input7
*444 input8
*445 input9
*446 output10
*447 output11
*448 output12
*449 output13
*450 output14
*451 output15

*PORTS
clk_i I
clk_o O
cycl_count_o[0] O
cycl_count_o[1] O
cycl_count_o[2] O
cycl_count_o[3] O
div_i[0] I
div_i[1] I
div_i[2] I
div_i[3] I
div_ready_o O
div_valid_i I
en_i I
rst_ni I
test_mode_en_i I

*D_NET *3 0.000699906
*CONN
*P clk_i I
*I *437:A I *D sky130_fd_sc_hd__clkbuf_1
*CAP
1 clk_i 0.000349953
2 *437:A 0
3 *3:17 0.000349953
4 *3:17 *110:14 0
*RES
1 clk_i *3:17 27.8627 
2 *3:17 *437:A 23 
*END

*D_NET *4 0.00129002
*CONN
*P clk_o O
*I *446:X O *D sky130_fd_sc_hd__buf_2
*CAP
1 clk_o 0.000579624
2 *446:X 0.000579624
3 clk_o *381:B 9.84851e-05
4 clk_o *446:A 3.22879e-05
*RES
1 *446:X clk_o 48.9993 
*END

*D_NET *5 0.000801751
*CONN
*P cycl_count_o[0] O
*I *447:X O *D sky130_fd_sc_hd__buf_2
*CAP
1 cycl_count_o[0] 0.000328231
2 *447:X 0.000328231
3 cycl_count_o[0] cycl_count_o[2] 8.97484e-05
4 cycl_count_o[0] cycl_count_o[3] 0
5 cycl_count_o[0] *112:57 3.59619e-05
6 cycl_count_o[0] *115:14 1.95789e-05
*RES
1 *447:X cycl_count_o[0] 48.2126 
*END

*D_NET *6 0.00115251
*CONN
*P cycl_count_o[1] O
*I *448:X O *D sky130_fd_sc_hd__buf_2
*CAP
1 cycl_count_o[1] 0.000547733
2 *448:X 0.000547733
3 cycl_count_o[1] *448:A 5.70419e-05
*RES
1 *448:X cycl_count_o[1] 48.7507 
*END

*D_NET *7 0.000655955
*CONN
*P cycl_count_o[2] O
*I *449:X O *D sky130_fd_sc_hd__buf_2
*CAP
1 cycl_count_o[2] 0.000245793
2 *449:X 0.000245793
3 cycl_count_o[2] *115:14 7.46212e-05
4 cycl_count_o[0] cycl_count_o[2] 8.97484e-05
*RES
1 *449:X cycl_count_o[2] 47.8691 
*END

*D_NET *8 0.00077743
*CONN
*P cycl_count_o[3] O
*I *450:X O *D sky130_fd_sc_hd__buf_2
*CAP
1 cycl_count_o[3] 0.000317998
2 *450:X 0.000317998
3 cycl_count_o[3] div_ready_o 7.76976e-05
4 cycl_count_o[3] *97:12 6.37358e-05
5 cycl_count_o[0] cycl_count_o[3] 0
*RES
1 *450:X cycl_count_o[3] 49.2777 
*END

*D_NET *9 0.00080951
*CONN
*P div_i[0] I
*I *438:A I *D sky130_fd_sc_hd__clkbuf_1
*CAP
1 div_i[0] 0.00035033
2 *438:A 0.00035033
3 *438:A *414:A1 7.76035e-05
4 *438:A *11:13 0
5 *438:A *12:17 3.12475e-05
*RES
1 div_i[0] *438:A 48.0408 
*END

*D_NET *10 0.000682155
*CONN
*P div_i[1] I
*I *439:A I *D sky130_fd_sc_hd__buf_1
*CAP
1 div_i[1] 0.000330455
2 *439:A 0
3 *10:17 0.000330455
4 *10:17 *11:13 2.12457e-05
*RES
1 div_i[1] *10:17 27.5105 
2 *10:17 *439:A 23 
*END

*D_NET *11 0.00134884
*CONN
*P div_i[2] I
*I *440:A I *D sky130_fd_sc_hd__buf_1
*CAP
1 div_i[2] 0.000503203
2 *440:A 0
3 *11:13 0.000503203
4 *11:13 *12:17 2.12457e-05
5 *11:13 *31:10 7.03766e-05
6 *11:13 *122:10 2.93747e-05
7 *11:13 *122:16 0.000200195
8 *438:A *11:13 0
9 *10:17 *11:13 2.12457e-05
*RES
1 div_i[2] *11:13 30.1927 
2 *11:13 *440:A 23 
*END

*D_NET *12 0.000777366
*CONN
*P div_i[3] I
*I *441:A I *D sky130_fd_sc_hd__buf_1
*CAP
1 div_i[3] 0.000362436
2 *441:A 0
3 *12:17 0.000362436
4 *12:17 *72:8 0
5 *12:17 *124:10 0
6 *438:A *12:17 3.12475e-05
7 *11:13 *12:17 2.12457e-05
*RES
1 div_i[3] *12:17 28.567 
2 *12:17 *441:A 23 
*END

*D_NET *13 0.0012243
*CONN
*P div_ready_o O
*I *451:X O *D sky130_fd_sc_hd__buf_6
*CAP
1 div_ready_o 0.000179543
2 *451:X 0.000163727
3 *13:8 0.000343269
4 div_ready_o *14:11 7.82427e-05
5 *13:8 *14:11 0.000271011
6 *13:8 *75:35 1.22906e-05
7 *13:8 *97:20 2.45612e-05
8 *13:8 *116:8 0
9 *13:8 *125:39 7.39611e-05
10 cycl_count_o[3] div_ready_o 7.76976e-05
*RES
1 *451:X *13:8 42.5468 
2 *13:8 div_ready_o 8.84373 
*END

*D_NET *14 0.00109916
*CONN
*P div_valid_i I
*I *442:A I *D sky130_fd_sc_hd__buf_1
*CAP
1 div_valid_i 0.000323296
2 *442:A 0
3 *14:11 0.000323296
4 *14:11 *443:A 7.82427e-05
5 *14:11 *75:35 1.94522e-05
6 *14:11 *125:39 5.62433e-06
7 div_ready_o *14:11 7.82427e-05
8 *13:8 *14:11 0.000271011
*RES
1 div_valid_i *14:11 28.3047 
2 *14:11 *442:A 23 
*END

*D_NET *15 0.000455672
*CONN
*P en_i I
*I *443:A I *D sky130_fd_sc_hd__clkbuf_1
*CAP
1 en_i 0.000148407
2 *443:A 0.000148407
3 *443:A *16:11 8.06147e-05
4 *443:A *105:10 0
5 *14:11 *443:A 7.82427e-05
*RES
1 en_i *443:A 47.0789 
*END

*D_NET *16 0.00212796
*CONN
*P rst_ni I
*I *444:A I *D sky130_fd_sc_hd__clkbuf_1
*CAP
1 rst_ni 0.000857594
2 *444:A 0
3 *16:11 0.000857594
4 *16:11 *381:B 4.82745e-05
5 *16:11 *430:CLK 2.66127e-05
6 *16:11 *430:D 1.02387e-05
7 *16:11 *107:10 0.000184174
8 *16:11 *120:32 6.28591e-05
9 *443:A *16:11 8.06147e-05
*RES
1 rst_ni *16:11 28.6221 
2 *16:11 *444:A 23 
*END

*D_NET *17 0.000901682
*CONN
*P test_mode_en_i I
*I *445:A I *D sky130_fd_sc_hd__clkbuf_1
*CAP
1 test_mode_en_i 0.000450841
2 *445:A 0.000450841
*RES
1 test_mode_en_i *445:A 47.3214 
*END

*D_NET *18 0.000245807
*CONN
*I *432:D I *D sky130_fd_sc_hd__dlxtp_1
*I *381:X O *D sky130_fd_sc_hd__or2_1
*CAP
1 *432:D 0
2 *381:X 9.35954e-05
3 *18:8 9.35954e-05
4 *18:8 *128:21 5.86165e-05
*RES
1 *381:X *18:8 40.2579 
2 *18:8 *432:D 38 
*END

*D_NET *19 0.000128941
*CONN
*I *432:GATE I *D sky130_fd_sc_hd__dlxtp_1
*I *379:Y O *D sky130_fd_sc_hd__inv_2
*CAP
1 *432:GATE 4.83267e-05
2 *379:Y 4.83267e-05
3 *432:GATE *20:14 3.22879e-05
*RES
1 *379:Y *432:GATE 47.0979 
*END

*D_NET *20 0.00219898
*CONN
*I *380:B I *D sky130_fd_sc_hd__and2_1
*I *418:CLK I *D sky130_fd_sc_hd__dfrtp_1
*I *379:A I *D sky130_fd_sc_hd__inv_2
*I *378:X O *D sky130_fd_sc_hd__mux2_1
*CAP
1 *380:B 0
2 *418:CLK 2.00578e-05
3 *379:A 0
4 *378:X 0
5 *20:38 0.000255542
6 *20:23 0.000479001
7 *20:14 0.00024025
8 *20:4 0.000443652
9 *20:14 *420:RESET_B 0.000141293
10 *20:14 *128:21 0.000110922
11 *20:23 *378:S 5.25848e-05
12 *20:23 *420:CLK 8.47188e-05
13 *20:38 *381:B 0.000207427
14 *20:38 *420:CLK 3.7122e-06
15 *20:38 *430:CLK 8.16253e-05
16 *20:38 *106:8 4.59027e-05
17 *20:38 *128:21 0
18 *432:GATE *20:14 3.22879e-05
*RES
1 *378:X *20:4 23 
2 *20:4 *20:14 35.0543 
3 *20:14 *379:A 23 
4 *20:4 *20:23 3.97714 
5 *20:23 *418:CLK 23.4971 
6 *20:23 *20:38 36.525 
7 *20:38 *380:B 23 
*END

*D_NET *21 0.000820107
*CONN
*I *419:CLK I *D sky130_fd_sc_hd__dfrtp_1
*I *340:Y O *D sky130_fd_sc_hd__inv_2
*CAP
1 *419:CLK 0.000111002
2 *340:Y 0.000230294
3 *21:10 0.000341296
4 *21:10 *119:81 0.000137515
*RES
1 *340:Y *21:10 41.9564 
2 *21:10 *419:CLK 39.5743 
*END

*D_NET *22 0.000644577
*CONN
*I *416:D I *D sky130_fd_sc_hd__dfrtp_2
*I *382:X O *D sky130_fd_sc_hd__a41o_1
*CAP
1 *416:D 2.53581e-05
2 *382:X 0.000137118
3 *22:10 0.000162476
4 *416:D *95:34 5.67058e-05
5 *416:D *95:51 8.52481e-05
6 *416:D *119:101 8.1796e-05
7 *22:10 *55:6 5.50106e-05
8 *22:10 *95:40 4.08641e-05
*RES
1 *382:X *22:10 40.175 
2 *22:10 *416:D 39.5743 
*END

*D_NET *23 0.000449731
*CONN
*I *417:D I *D sky130_fd_sc_hd__dfrtp_2
*I *392:X O *D sky130_fd_sc_hd__or2_1
*CAP
1 *417:D 2.24686e-05
2 *392:X 0.00011808
3 *23:10 0.000140549
4 *417:D *417:RESET_B 5.50049e-05
5 *23:10 *77:128 7.90109e-05
6 *23:10 *120:32 3.46181e-05
*RES
1 *392:X *23:10 40.175 
2 *23:10 *417:D 38.6214 
*END

*D_NET *24 0.000557662
*CONN
*I *419:D I *D sky130_fd_sc_hd__dfrtp_1
*I *372:Y O *D sky130_fd_sc_hd__xnor2_1
*CAP
1 *419:D 0
2 *372:Y 0.000221794
3 *24:10 0.000221794
4 *24:10 *419:RESET_B 0.000114074
*RES
1 *372:Y *24:10 41.1279 
2 *24:10 *419:D 38 
*END

*D_NET *25 0.00048538
*CONN
*I *420:D I *D sky130_fd_sc_hd__dfrtp_1
*I *397:Y O *D sky130_fd_sc_hd__xnor2_1
*CAP
1 *420:D 0
2 *397:Y 0.00019345
3 *25:10 0.00019345
4 *25:10 *377:A 0
5 *25:10 *397:A 0
6 *25:10 *117:12 9.84794e-05
7 *25:10 *119:107 0
*RES
1 *397:Y *25:10 41.0036 
2 *25:10 *420:D 38 
*END

*D_NET *26 0.00075561
*CONN
*I *421:D I *D sky130_fd_sc_hd__dfrtp_4
*I *402:Y O *D sky130_fd_sc_hd__a211oi_1
*CAP
1 *421:D 0
2 *402:Y 0.000186101
3 *26:6 0.000186101
4 *26:6 *404:A1 0.000185428
5 *26:6 *404:A2 0.000185783
6 *26:6 *120:12 1.21972e-05
*RES
1 *402:Y *26:6 27.4329 
2 *26:6 *421:D 23 
*END

*D_NET *27 0.000969386
*CONN
*I *422:D I *D sky130_fd_sc_hd__dfrtp_4
*I *404:Y O *D sky130_fd_sc_hd__a21oi_1
*CAP
1 *422:D 5.53719e-05
2 *404:Y 0.000185181
3 *27:10 0.000240553
4 *422:D *422:RESET_B 0.00014196
5 *27:10 *402:B1 5.50106e-05
6 *27:10 *403:B 4.94686e-05
7 *27:10 *404:A1 0
8 *27:10 *45:41 0
9 *27:10 *48:8 9.48381e-06
10 *27:10 *49:8 0.000136486
11 *27:10 *120:12 9.58714e-05
*RES
1 *404:Y *27:10 42.06 
2 *27:10 *422:D 39.5743 
*END

*D_NET *28 0.000776843
*CONN
*I *423:D I *D sky130_fd_sc_hd__dfrtp_2
*I *407:Y O *D sky130_fd_sc_hd__a211oi_1
*CAP
1 *423:D 0
2 *407:Y 0.000281938
3 *28:6 0.000281938
4 *28:6 *407:A1 9.41704e-05
5 *28:6 *407:B1 7.43025e-06
6 *28:6 *407:C1 2.30292e-05
7 *28:6 *46:27 5.50049e-05
8 *28:6 *46:37 1.56762e-05
9 *28:6 *120:20 1.76557e-05
*RES
1 *407:Y *28:6 27.9093 
2 *28:6 *423:D 23 
*END

*D_NET *29 0.000465688
*CONN
*I *424:D I *D sky130_fd_sc_hd__dfrtp_2
*I *409:Y O *D sky130_fd_sc_hd__a21oi_1
*CAP
1 *424:D 3.02401e-05
2 *409:Y 0.000150081
3 *29:8 0.000180321
4 *424:D *115:29 3.22879e-05
5 *29:8 *46:10 5.15745e-05
6 *29:8 *46:27 2.11827e-05
7 *29:8 *118:53 0
*RES
1 *409:Y *29:8 40.9621 
2 *29:8 *424:D 38.6214 
*END

*D_NET *30 0.000564287
*CONN
*I *425:D I *D sky130_fd_sc_hd__dfstp_2
*I *410:X O *D sky130_fd_sc_hd__mux2_1
*CAP
1 *425:D 1.87756e-05
2 *410:X 0.000202198
3 *30:10 0.000220974
4 *425:D *98:8 2.93431e-05
5 *425:D *119:75 5.56279e-05
6 *30:10 *77:28 1.01436e-05
7 *30:10 *77:40 0
8 *30:10 *95:23 2.72257e-05
9 *30:10 *98:10 0
*RES
1 *410:X *30:10 41.0036 
2 *30:10 *425:D 38.6214 
*END

*D_NET *31 0.00100013
*CONN
*I *426:D I *D sky130_fd_sc_hd__dfrtp_4
*I *411:X O *D sky130_fd_sc_hd__mux2_1
*CAP
1 *426:D 0
2 *411:X 0.00035149
3 *31:10 0.00035149
4 *31:10 *32:10 0
5 *31:10 *119:28 0.000142724
6 *31:10 *122:10 7.39034e-05
7 *31:10 *122:16 1.01436e-05
8 *11:13 *31:10 7.03766e-05
*RES
1 *411:X *31:10 45.8093 
2 *31:10 *426:D 38 
*END

*D_NET *32 0.00107512
*CONN
*I *427:D I *D sky130_fd_sc_hd__dfrtp_2
*I *412:X O *D sky130_fd_sc_hd__mux2_1
*CAP
1 *427:D 0
2 *412:X 0.000377723
3 *32:10 0.000377723
4 *32:10 *427:RESET_B 0
5 *32:10 *117:51 0
6 *32:10 *119:12 0
7 *32:10 *119:28 0.00030233
8 *32:10 *123:23 1.73399e-05
9 *31:10 *32:10 0
*RES
1 *412:X *32:10 46.1614 
2 *32:10 *427:D 38 
*END

*D_NET *33 0.000504533
*CONN
*I *428:D I *D sky130_fd_sc_hd__dfrtp_1
*I *413:X O *D sky130_fd_sc_hd__mux2_1
*CAP
1 *428:D 0
2 *413:X 0.000164939
3 *33:10 0.000164939
4 *33:10 *77:70 0
5 *33:10 *99:29 0.000116314
6 *33:10 *124:16 5.83407e-05
*RES
1 *413:X *33:10 41.1279 
2 *33:10 *428:D 38 
*END

*D_NET *34 0.000696943
*CONN
*I *429:D I *D sky130_fd_sc_hd__dfstp_1
*I *414:X O *D sky130_fd_sc_hd__mux2_1
*CAP
1 *429:D 0
2 *414:X 0.000168391
3 *34:8 0.000168391
4 *34:8 *431:CLK 1.14452e-05
5 *34:8 *119:30 0.00016046
6 *34:8 *119:32 0.000188256
*RES
1 *414:X *34:8 42.7229 
2 *34:8 *429:D 38 
*END

*D_NET *35 0.000995348
*CONN
*I *431:D I *D sky130_fd_sc_hd__dfrtp_1
*I *415:X O *D sky130_fd_sc_hd__mux2_1
*CAP
1 *431:D 4.01985e-05
2 *415:X 0.000273756
3 *35:8 0.000313954
4 *35:8 *431:RESET_B 0.000223225
5 *35:8 *95:10 2.79004e-05
6 *35:8 *117:40 0.000116314
*RES
1 *415:X *35:8 45.1879 
2 *35:8 *431:D 38.6214 
*END

*D_NET *36 0.000968179
*CONN
*I *390:B I *D sky130_fd_sc_hd__or3b_1
*I *387:Y O *D sky130_fd_sc_hd__a21oi_1
*CAP
1 *390:B 0
2 *387:Y 0.000210142
3 *36:8 0.000210142
4 *36:8 *387:B1 2.64616e-05
5 *36:8 *389:B1 1.5769e-05
6 *36:8 *82:27 0.000221992
7 *36:8 *91:17 1.21972e-05
8 *36:8 *113:20 0.000271476
*RES
1 *387:Y *36:8 28.4064 
2 *36:8 *390:B 23 
*END

*D_NET *37 0.000723878
*CONN
*I *390:C_N I *D sky130_fd_sc_hd__or3b_1
*I *388:X O *D sky130_fd_sc_hd__o211a_1
*CAP
1 *390:C_N 0
2 *388:X 0.000302699
3 *37:10 0.000302699
4 *37:10 *388:A2 5.3304e-05
5 *37:10 *406:A1 0
6 *37:10 *82:38 0
7 *37:10 *112:20 6.51763e-05
*RES
1 *388:X *37:10 42.4329 
2 *37:10 *390:C_N 38 
*END

*D_NET *38 0.000443619
*CONN
*I *390:A I *D sky130_fd_sc_hd__or3b_1
*I *389:X O *D sky130_fd_sc_hd__a22o_1
*CAP
1 *390:A 0.000156157
2 *389:X 0.000156157
3 *390:A *113:20 0.000131304
*RES
1 *389:X *390:A 49.5214 
*END

*D_NET *39 0.00268865
*CONN
*I *399:A2 I *D sky130_fd_sc_hd__o21ai_2
*I *391:A2 I *D sky130_fd_sc_hd__o211a_1
*I *390:X O *D sky130_fd_sc_hd__or3b_1
*CAP
1 *399:A2 0
2 *391:A2 0
3 *390:X 0.000247954
4 *39:22 0.000165132
5 *39:12 0.000424971
6 *39:8 0.000507793
7 *39:8 *47:10 0
8 *39:8 *47:21 0
9 *39:8 *94:8 0.000146951
10 *39:8 *113:22 3.72639e-05
11 *39:8 *114:36 9.26005e-05
12 *39:8 *114:44 0.000437244
13 *39:12 *94:12 0.00031495
14 *39:12 *94:27 8.52481e-05
15 *39:22 *47:10 5.26101e-05
16 *39:22 *77:140 9.67842e-05
17 *39:22 *94:27 7.91493e-05
*RES
1 *390:X *39:8 45.8921 
2 *39:8 *39:12 20.8621 
3 *39:12 *39:22 33.8529 
4 *39:22 *391:A2 23 
5 *39:12 *399:A2 23 
*END

*D_NET *40 0.000586463
*CONN
*I *392:B I *D sky130_fd_sc_hd__or2_1
*I *391:X O *D sky130_fd_sc_hd__o211a_1
*CAP
1 *392:B 9.73282e-05
2 *391:X 6.92661e-05
3 *40:8 0.000166594
4 *392:B *77:140 0.000183733
5 *40:8 *417:RESET_B 1.14452e-05
6 *40:8 *45:8 5.80963e-05
7 *40:8 *120:32 0
*RES
1 *391:X *40:8 39.5536 
2 *40:8 *392:B 40.0507 
*END

*D_NET *41 0.000867708
*CONN
*I *394:D I *D sky130_fd_sc_hd__or4_1
*I *393:X O *D sky130_fd_sc_hd__xor2_1
*CAP
1 *394:D 0
2 *393:X 0.000281334
3 *41:10 0.000281334
4 *41:10 *393:A 0.000226923
5 *41:10 *65:45 0
6 *41:10 *86:8 7.81176e-05
*RES
1 *393:X *41:10 42.785 
2 *41:10 *394:D 38 
*END

*D_NET *42 0.00106094
*CONN
*I *395:B1 I *D sky130_fd_sc_hd__o31a_1
*I *394:X O *D sky130_fd_sc_hd__or4_1
*CAP
1 *395:B1 0
2 *394:X 0.000431486
3 *42:12 0.000431486
4 *42:12 *396:A 5.70419e-05
5 *42:12 *396:B 0
6 *42:12 *43:10 0
7 *42:12 *75:10 7.92721e-05
8 *42:12 *95:40 0
9 *42:12 *113:28 6.16531e-05
*RES
1 *394:X *42:12 45.6436 
2 *42:12 *395:B1 38 
*END

*D_NET *43 0.000467605
*CONN
*I *396:C I *D sky130_fd_sc_hd__or3_1
*I *395:X O *D sky130_fd_sc_hd__o31a_1
*CAP
1 *396:C 0
2 *395:X 0.000150323
3 *43:10 0.000150323
4 *43:10 *394:A 4.21594e-06
5 *43:10 *396:A 6.4393e-05
6 *43:10 *396:B 4.334e-05
7 *43:10 *58:25 5.50106e-05
8 *43:10 *86:8 0
9 *42:12 *43:10 0
*RES
1 *395:X *43:10 40.8793 
2 *43:10 *396:C 38 
*END

*D_NET *44 0.00111771
*CONN
*I *397:B I *D sky130_fd_sc_hd__xnor2_1
*I *396:X O *D sky130_fd_sc_hd__or3_1
*CAP
1 *397:B 0
2 *396:X 0.000432939
3 *44:8 0.000432939
4 *44:8 *371:B 7.03869e-05
5 *44:8 *396:B 4.334e-05
6 *44:8 *397:A 3.92407e-05
7 *44:8 *77:108 9.88678e-05
8 *44:8 *108:29 0
*RES
1 *396:X *44:8 45.8921 
2 *44:8 *397:B 38 
*END

*D_NET *45 0.00468157
*CONN
*I *404:A1 I *D sky130_fd_sc_hd__a21oi_1
*I *402:A1 I *D sky130_fd_sc_hd__a211oi_1
*I *401:B I *D sky130_fd_sc_hd__nor2_1
*I *407:A1 I *D sky130_fd_sc_hd__a211oi_1
*I *409:A1 I *D sky130_fd_sc_hd__a21oi_1
*I *398:X O *D sky130_fd_sc_hd__or3_2
*CAP
1 *404:A1 0.000225308
2 *402:A1 0
3 *401:B 6.1801e-05
4 *407:A1 4.73671e-05
5 *409:A1 0.000247453
6 *398:X 0.00039033
7 *45:41 0.00035757
8 *45:30 0.00029848
9 *45:19 0.000330711
10 *45:8 0.000816711
11 *401:B *112:14 0.000141954
12 *404:A1 *404:A2 2.4754e-05
13 *404:A1 *422:CLK 2.3529e-05
14 *404:A1 *46:37 1.14452e-05
15 *404:A1 *120:12 1.41077e-05
16 *407:A1 *407:B1 3.7122e-06
17 *407:A1 *46:37 5.3304e-05
18 *409:A1 *409:B1 0.000180224
19 *409:A1 *114:25 4.75206e-05
20 *45:8 *391:B1 5.44006e-05
21 *45:8 *408:B 8.41115e-05
22 *45:8 *417:RESET_B 7.4878e-05
23 *45:8 *47:10 0
24 *45:8 *52:8 2.54046e-05
25 *45:8 *77:140 0.000139647
26 *45:8 *94:27 3.72536e-05
27 *45:8 *120:26 0
28 *45:8 *120:32 0
29 *45:19 *407:B1 4.08537e-05
30 *45:19 *408:B 7.02841e-05
31 *45:19 *46:27 0
32 *45:19 *46:37 3.70094e-05
33 *45:19 *52:8 1.19796e-05
34 *45:19 *114:73 0
35 *45:19 *120:20 1.47563e-05
36 *45:19 *120:26 0
37 *45:30 *46:37 0.000192087
38 *45:30 *47:30 0
39 *45:41 *46:37 0.000243596
40 *45:41 *47:30 0
41 *45:41 *48:8 4.13358e-05
42 *26:6 *404:A1 0.000185428
43 *27:10 *404:A1 0
44 *27:10 *45:41 0
45 *28:6 *407:A1 9.41704e-05
46 *40:8 *45:8 5.80963e-05
*RES
1 *398:X *45:8 47.6529 
2 *45:8 *409:A1 41.48 
3 *45:8 *45:19 4.01857 
4 *45:19 *407:A1 39.0979 
5 *45:19 *45:30 2.61 
6 *45:30 *401:B 39.5743 
7 *45:30 *45:41 3.31429 
8 *45:41 *402:A1 38 
9 *45:41 *404:A1 41.8529 
*END

*D_NET *46 0.00462673
*CONN
*I *407:A2 I *D sky130_fd_sc_hd__a211oi_1
*I *402:A2 I *D sky130_fd_sc_hd__a211oi_1
*I *404:A2 I *D sky130_fd_sc_hd__a21oi_1
*I *409:A2 I *D sky130_fd_sc_hd__a21oi_1
*I *399:Y O *D sky130_fd_sc_hd__o21ai_2
*CAP
1 *407:A2 0
2 *402:A2 0
3 *404:A2 9.74094e-05
4 *409:A2 0
5 *399:Y 0.000470532
6 *46:37 0.000340498
7 *46:27 0.000498087
8 *46:10 0.000725531
9 *404:A2 *120:12 0.000230266
10 *46:10 *77:140 0.000168985
11 *46:10 *94:27 9.84794e-05
12 *46:10 *118:46 0
13 *46:10 *120:26 0.000221174
14 *46:10 *120:32 0.000166532
15 *46:27 *118:53 0
16 *46:27 *120:20 4.62588e-05
17 *46:27 *120:26 0.000157309
18 *46:37 *407:C1 0
19 *46:37 *422:CLK 2.68751e-05
20 *46:37 *423:CLK 5.90675e-06
21 *46:37 *120:20 0.00048147
22 *404:A1 *404:A2 2.4754e-05
23 *404:A1 *46:37 1.14452e-05
24 *407:A1 *46:37 5.3304e-05
25 *26:6 *404:A2 0.000185783
26 *28:6 *46:27 5.50049e-05
27 *28:6 *46:37 1.56762e-05
28 *29:8 *46:10 5.15745e-05
29 *29:8 *46:27 2.11827e-05
30 *45:19 *46:27 0
31 *45:19 *46:37 3.70094e-05
32 *45:30 *46:37 0.000192087
33 *45:41 *46:37 0.000243596
*RES
1 *399:Y *46:10 47.9843 
2 *46:10 *409:A2 38 
3 *46:10 *46:27 20.1786 
4 *46:27 *46:37 37.7264 
5 *46:37 *404:A2 27.1429 
6 *46:37 *402:A2 23 
7 *46:27 *407:A2 23 
*END

*D_NET *47 0.00567707
*CONN
*I *403:B I *D sky130_fd_sc_hd__xnor2_1
*I *402:B1 I *D sky130_fd_sc_hd__a211oi_1
*I *406:A2 I *D sky130_fd_sc_hd__a21oi_1
*I *405:C I *D sky130_fd_sc_hd__and3_1
*I *400:X O *D sky130_fd_sc_hd__o31a_1
*CAP
1 *403:B 0.000349277
2 *402:B1 0.000163585
3 *406:A2 0
4 *405:C 0.00011271
5 *400:X 0.000467244
6 *47:30 0.000785623
7 *47:21 0.000465092
8 *47:10 0.000783611
9 *47:8 0.000945814
10 *402:B1 *120:12 0.000139552
11 *403:B *448:A 5.50049e-05
12 *403:B *49:8 0.000330144
13 *405:C *405:A 5.50106e-05
14 *405:C *114:25 8.44405e-06
15 *405:C *114:36 8.7283e-06
16 *47:8 *398:A 1.41077e-05
17 *47:8 *398:C 9.58714e-05
18 *47:8 *97:51 9.59224e-05
19 *47:10 *337:A 6.26356e-05
20 *47:10 *391:C1 9.6289e-05
21 *47:10 *408:B 0
22 *47:10 *78:10 0.000114083
23 *47:10 *94:8 0
24 *47:10 *94:27 0
25 *47:10 *95:40 0.000310883
26 *47:10 *114:44 0
27 *47:21 *408:B 0
28 *47:21 *94:8 0
29 *47:21 *114:73 5.61311e-05
30 *47:30 *48:8 0
31 *47:30 *114:73 4.21594e-06
32 *27:10 *402:B1 5.50106e-05
33 *27:10 *403:B 4.94686e-05
34 *39:8 *47:10 0
35 *39:8 *47:21 0
36 *39:22 *47:10 5.26101e-05
37 *45:8 *47:10 0
38 *45:30 *47:30 0
39 *45:41 *47:30 0
*RES
1 *400:X *47:8 44.3386 
2 *47:8 *47:10 11.4136 
3 *47:10 *405:C 39.6571 
4 *47:10 *47:21 4.01857 
5 *47:21 *406:A2 38 
6 *47:21 *47:30 4.72286 
7 *47:30 *402:B1 40.5271 
8 *47:30 *403:B 45.8714 
*END

*D_NET *48 0.000284282
*CONN
*I *402:C1 I *D sky130_fd_sc_hd__a211oi_1
*I *401:Y O *D sky130_fd_sc_hd__nor2_1
*CAP
1 *402:C1 0
2 *401:Y 0.000116731
3 *48:8 0.000116731
4 *27:10 *48:8 9.48381e-06
5 *45:41 *48:8 4.13358e-05
6 *47:30 *48:8 0
*RES
1 *401:Y *48:8 39.9057 
2 *48:8 *402:C1 38 
*END

*D_NET *49 0.000923793
*CONN
*I *404:B1 I *D sky130_fd_sc_hd__a21oi_1
*I *403:Y O *D sky130_fd_sc_hd__xnor2_1
*CAP
1 *404:B1 3.98456e-05
2 *403:Y 0.000174044
3 *49:8 0.000213889
4 *404:B1 *120:12 2.93845e-05
5 *49:8 *422:CLK 0
6 *403:B *49:8 0.000330144
7 *27:10 *49:8 0.000136486
*RES
1 *403:Y *49:8 42.3707 
2 *49:8 *404:B1 38.6214 
*END

*D_NET *50 0.000928994
*CONN
*I *407:B1 I *D sky130_fd_sc_hd__a211oi_1
*I *408:B I *D sky130_fd_sc_hd__xnor2_1
*I *405:X O *D sky130_fd_sc_hd__and3_1
*CAP
1 *407:B1 0.000129061
2 *408:B 0.000184303
3 *405:X 0
4 *50:6 0.000313364
5 *407:B1 *407:C1 5.50106e-05
6 *407:B1 *114:73 3.62323e-05
7 *408:B *114:73 4.6318e-06
8 *407:A1 *407:B1 3.7122e-06
9 *28:6 *407:B1 7.43025e-06
10 *45:8 *408:B 8.41115e-05
11 *45:19 *407:B1 4.08537e-05
12 *45:19 *408:B 7.02841e-05
13 *47:10 *408:B 0
14 *47:21 *408:B 0
*RES
1 *405:X *50:6 38 
2 *50:6 *408:B 42.0186 
3 *50:6 *407:B1 40.2993 
*END

*D_NET *51 0.00028515
*CONN
*I *407:C1 I *D sky130_fd_sc_hd__a211oi_1
*I *406:Y O *D sky130_fd_sc_hd__a21oi_1
*CAP
1 *407:C1 0.000103555
2 *406:Y 0.000103555
3 *407:C1 *423:CLK 0
4 *407:C1 *120:26 0
5 *407:B1 *407:C1 5.50106e-05
6 *28:6 *407:C1 2.30292e-05
7 *46:37 *407:C1 0
*RES
1 *406:Y *407:C1 48.0714 
*END

*D_NET *52 0.000788966
*CONN
*I *409:B1 I *D sky130_fd_sc_hd__a21oi_1
*I *408:Y O *D sky130_fd_sc_hd__xnor2_1
*CAP
1 *409:B1 0.000116647
2 *408:Y 7.23219e-05
3 *52:8 0.000188969
4 *409:B1 *114:25 0.000141318
5 *52:8 *120:26 5.21024e-05
6 *409:A1 *409:B1 0.000180224
7 *45:8 *52:8 2.54046e-05
8 *45:19 *52:8 1.19796e-05
*RES
1 *408:Y *52:8 39.5536 
2 *52:8 *409:B1 41.0036 
*END

*D_NET *53 0.00163412
*CONN
*I *368:B2 I *D sky130_fd_sc_hd__o2bb2a_1
*I *367:B2 I *D sky130_fd_sc_hd__a22oi_1
*I *335:Y O *D sky130_fd_sc_hd__inv_2
*CAP
1 *368:B2 0.000187577
2 *367:B2 0
3 *335:Y 1.7859e-05
4 *53:12 0.000145124
5 *53:6 0.00035056
6 *368:B2 *368:A2_N 4.75206e-05
7 *368:B2 *369:B2 0.000126451
8 *368:B2 *59:27 0.000341076
9 *368:B2 *65:37 0.000133047
10 *53:6 *369:B2 0.000102389
11 *53:6 *59:27 0.000100061
12 *53:12 *387:A1 8.24521e-05
*RES
1 *335:Y *53:6 24.0979 
2 *53:6 *53:12 32.61 
3 *53:12 *367:B2 23 
4 *53:6 *368:B2 27.9093 
*END

*D_NET *54 0.00190426
*CONN
*I *391:B1 I *D sky130_fd_sc_hd__o211a_1
*I *382:A1 I *D sky130_fd_sc_hd__a41o_1
*I *336:Y O *D sky130_fd_sc_hd__inv_2
*CAP
1 *391:B1 0.000196504
2 *382:A1 0.00016746
3 *336:Y 0.000189519
4 *54:8 0.000553483
5 *382:A1 *337:A 0.000125915
6 *382:A1 *382:B1 3.62905e-05
7 *382:A1 *417:RESET_B 0
8 *382:A1 *55:21 2.72055e-05
9 *382:A1 *67:10 5.21127e-05
10 *382:A1 *75:10 6.09174e-05
11 *391:B1 *337:A 9.03054e-05
12 *391:B1 *391:C1 9.98995e-05
13 *391:B1 *417:RESET_B 0
14 *391:B1 *94:27 1.14452e-05
15 *54:8 *350:B1 0.000228903
16 *54:8 *112:67 9.8971e-06
17 *45:8 *391:B1 5.44006e-05
*RES
1 *336:Y *54:8 41.0036 
2 *54:8 *382:A1 42.4329 
3 *54:8 *391:B1 43.075 
*END

*D_NET *55 0.00216646
*CONN
*I *361:C I *D sky130_fd_sc_hd__and3b_4
*I *350:A1 I *D sky130_fd_sc_hd__a21oi_1
*I *382:A2 I *D sky130_fd_sc_hd__a41o_1
*I *337:Y O *D sky130_fd_sc_hd__inv_2
*CAP
1 *361:C 0.000133411
2 *350:A1 0
3 *382:A2 2.34823e-05
4 *337:Y 0.000121525
5 *55:21 0.000140197
6 *55:15 0.000303622
7 *55:6 0.000175022
8 *361:C *361:B 5.67058e-05
9 *361:C *382:A3 0.000204248
10 *361:C *382:B1 0.00036851
11 *55:6 *337:A 5.67058e-05
12 *55:6 *382:B1 9.84794e-05
13 *55:6 *75:10 4.45594e-05
14 *55:15 *382:B1 5.3304e-05
15 *55:21 *382:A4 4.54033e-05
16 *55:21 *417:RESET_B 3.39231e-05
17 *55:21 *67:10 0.000188916
18 *55:21 *75:27 3.62323e-05
19 *382:A1 *55:21 2.72055e-05
20 *22:10 *55:6 5.50106e-05
*RES
1 *337:Y *55:6 26.0036 
2 *55:6 *382:A2 23.4971 
3 *55:6 *55:15 0.621429 
4 *55:15 *55:21 33.6664 
5 *55:21 *350:A1 23 
6 *55:15 *361:C 28.075 
*END

*D_NET *56 0.000708814
*CONN
*I *369:A1 I *D sky130_fd_sc_hd__o221a_1
*I *338:Y O *D sky130_fd_sc_hd__inv_2
*CAP
1 *369:A1 0
2 *338:Y 0.000185011
3 *56:10 0.000185011
4 *56:10 *59:27 4.67488e-05
5 *56:10 *63:25 0.000158727
6 *56:10 *65:37 0.000133316